&time_control
    end_day = 30, 30
    end_hour = 0, 0
    end_minute = 0, 0
    end_month = 9, 9
    end_second = 0, 0
    end_year = 2018, 2018
    frames_per_outfile = 1, 1
    history_interval = 180, 60
    input_from_file = .true., .true.
    interval_seconds = 21600
    io_form_boundary = 2
    io_form_history = 2
    io_form_input = 2
    io_form_restart = 2
    restart = .false.
    restart_interval = 1440
    run_days = 3
    run_hours = 0
    run_minutes = 0
    run_seconds = 0
    start_day = 27, 27
    start_hour = 0, 0
    start_minute = 0, 0
    start_month = 9, 9
    start_second = 0, 0
    start_year = 2018, 2018
/

&domains
    dx = 18000, 6000
    dy = 18000, 6000
    e_sn = 201, 201
    e_vert = 51, 51
    e_we = 201, 201
    feedback = 1
    grid_id = 1, 2
    i_parent_start = 1, 80
    j_parent_start = 1, 80
    max_dom = 2
    num_metgrid_levels = 34
    num_metgrid_soil_levels = 4
    p_top_requested = 5000
    parent_grid_ratio = 1, 3
    parent_id = 1, 1
    parent_time_step_ratio = 1, 3
    smooth_option = 0
    time_step = 90
    time_step_fract_den = 1
    time_step_fract_num = 0
/

&physics
    bl_pbl_physics = 1, 1
    bldt = 0, 0
    cu_physics = 1, 0
    cudt = 5, 0
    icloud = 1
    ifsnow = 1
    isfflx = 1
    mp_physics = 6, 6
    num_soil_layers = 4
    ra_lw_physics = 1, 1
    ra_sw_physics = 2, 2
    radt = 18, 6
    sf_sfclay_physics = 1, 1
    sf_surface_physics = 2, 2
    sf_urban_physics = 0, 0
    sst_update = 1
    surface_input_source = 1
/

&dynamics
    base_temp = 290.0
    damp_opt = 3
    dampcoef = 0.2, 0.2
    diff_6th_factor = 0.12, 0.12
    diff_6th_opt = 0, 0
    diff_opt = 1, 1
    khdif = 0, 0
    km_opt = 4, 4
    kvdif = 0, 0
    moist_adv_opt = 1, 1
    non_hydrostatic = .true., .true.
    scalar_adv_opt = 1, 1
    w_damping = 1
    zdamp = 5000.0, 5000.0
/

&bdy_control
    nested = .false., .true.
    relax_zone = 4
    spec_bdy_width = 5
    spec_zone = 1
    specified = .true., .false.
/

&namelist_quilt
    nio_groups = 1
    nio_tasks_per_group = 0
/

